Version 4.1
SHEET 1 2388 680
WIRE 496 -160 80 -160
WIRE 896 -160 496 -160
WIRE 1312 -160 896 -160
WIRE 1088 -96 752 -96
WIRE 496 -80 496 -160
WIRE 272 -32 224 -32
WIRE 896 -16 896 -160
WIRE 80 32 80 -160
WIRE 496 32 496 0
WIRE 752 32 752 -96
WIRE 752 32 496 32
WIRE 224 64 224 -32
WIRE 496 64 496 32
WIRE 1312 64 1312 -160
WIRE 896 80 896 64
WIRE 1280 80 896 80
WIRE 1600 80 1472 80
WIRE 896 96 896 80
WIRE 1472 96 1472 80
WIRE 1472 96 1344 96
WIRE 1600 96 1600 80
WIRE 1088 112 1088 -96
WIRE 1280 112 1088 112
WIRE 224 160 224 144
WIRE 352 160 352 -32
WIRE 352 160 224 160
WIRE 1600 192 1600 160
WIRE 80 320 80 112
WIRE 256 320 80 320
WIRE 352 320 352 160
WIRE 352 320 256 320
WIRE 496 320 496 144
WIRE 496 320 352 320
WIRE 896 320 896 176
WIRE 896 320 496 320
WIRE 1312 320 1312 128
WIRE 1312 320 896 320
WIRE 1600 320 1600 272
WIRE 1600 320 1312 320
WIRE 256 352 256 320
FLAG 256 352 0
FLAG 224 -32 VR
FLAG 752 -96 Vldr
FLAG 1472 80 vout
SYMBOL voltage 80 16 R0
WINDOW 123 0 0 Left 0
WINDOW 39 0 0 Left 0
SYMATTR InstName V1
SYMATTR Value 9
SYMBOL OpAmps\\UniversalOpAmp2 1312 96 R0
SYMATTR InstName LM1
SYMATTR Value2 Avol=140k GBW=1.2Meg Slew=0.5Meg
SYMATTR SpiceLine Ilimit=40m Rail=0 Vos=2.5m
SYMATTR SpiceLine2 En=0 Enk=0 In=0 Ink=0 Rin=10Meg
SYMBOL res 1584 176 R0
SYMATTR InstName R3
SYMATTR Value 220
SYMBOL LED 1584 96 R0
SYMATTR InstName D1
SYMBOL res 480 -96 R0
SYMATTR InstName LDR
SYMATTR Value R=V(VR)*100000
SYMBOL res 480 48 R0
SYMATTR InstName R1
SYMATTR Value 1000k
SYMBOL voltage 224 48 R0
WINDOW 123 0 0 Left 0
WINDOW 39 0 0 Left 0
SYMATTR InstName V3
SYMATTR Value PWL(0 0.2 10 10)
SYMBOL res 368 -48 R90
WINDOW 0 0 56 VBottom 2
WINDOW 3 32 56 VTop 2
SYMATTR InstName R2
SYMATTR Value 10k
SYMBOL res 880 -32 R0
SYMATTR InstName RPOT1
SYMATTR Value 4k
SYMBOL res 880 80 R0
SYMATTR InstName RPOT2
SYMATTR Value 6k
TEXT 224 200 Left 2 !.tran 10
TEXT 1000 -216 Left 2 ;Comparator
TEXT 360 -184 Left 2 ;LDR (30 - 30M)
RECTANGLE Normal 608 176 176 -96 2
RECTANGLE Normal 1408 352 816 -176 2
